Circuit: * C:\Users\Avi\Desktop\IEEGIT\TBioCAS2021\FIG5\2OZ\uniform\OZ_2_uniform_curves.asc

Direct Newton iteration for .op point skipped.
Starting Gmin stepping
Gmin = 10
Gmin = 1.07374
Gmin = 0.115292
Gmin = 0.0123794
Gmin = 0.00132923
Gmin = 0.000142725
Gmin = 1.5325e-005
Gmin = 1.6455e-006
Gmin = 1.76685e-007
Gmin = 1.89714e-008
Gmin = 2.03704e-009
Gmin = 2.18725e-010
Gmin = 2.34854e-011
Gmin = 2.52173e-012
Gmin = 2.70769e-013
Gmin = 0
Gmin stepping succeeded in finding the operating point.


Date: Tue Apr 27 08:48:25 2021
Total elapsed time: 3.426 seconds.

tnom = 27
temp = 27
method = modified trap
totiter = 7584
traniter = 7201
tranpoints = 2377
accept = 2005
rejected = 372
matrix size = 301
fillins = 1449
solver = Normal
Thread vector: 348.2/100.4[8] 24.5/13.5[8] 42.1/23.5[8] 2.8/3.9[1]  2592/500
Matrix Compiler1: 127.88 KB object code size  26.8/14.5/[6.8]
Matrix Compiler2: 63.66 KB object code size  291.8/20.4/[4.4]

