Circuit: * C:\Users\Avi\Desktop\IEEGIT\TBioCAS2021\FIG5\4OZ\uniform\OZ_4_uniform_curves.asc

Direct Newton iteration for .op point skipped.
Starting Gmin stepping
Gmin = 10
Gmin = 1.07374
Gmin = 0.115292
Gmin = 0.0123794
Gmin = 0.00132923
Gmin = 0.000142725
Gmin = 1.5325e-005
Gmin = 1.6455e-006
Gmin = 1.76685e-007
Gmin = 1.89714e-008
Gmin = 2.03704e-009
Gmin = 2.18725e-010
Gmin = 2.34854e-011
Gmin = 2.52173e-012
Gmin = 2.70769e-013
Gmin = 0
Gmin stepping succeeded in finding the operating point.


Date: Tue Apr 27 08:49:23 2021
Total elapsed time: 10.102 seconds.

tnom = 27
temp = 27
method = modified trap
totiter = 16841
traniter = 16458
tranpoints = 4981
accept = 3901
rejected = 1080
matrix size = 503
fillins = 2745
solver = Normal
Thread vector: 376.0/62.5[8] 43.7/26.0[8] 43.3/17.2[8] 3.8/2.6[7]  2592/500
Matrix Compiler1: 269.26 KB object code size  57.5/32.4/[10.5]
Matrix Compiler2: 113.56 KB object code size  12.6/8.6/[6.9]

