Circuit: * C:\Users\Avi\Desktop\IEEGIT\TBioCAS2021\FIG5\6OZ\bounded\OZ_6_bounded_curves.asc

Direct Newton iteration for .op point skipped.
Starting Gmin stepping
Gmin = 10
Gmin = 1.07374
Gmin = 0.115292
Gmin = 0.0123794
Gmin = 0.00132923
Gmin = 0.000142725
Gmin = 1.5325e-005
Gmin = 1.6455e-006
Gmin = 1.76685e-007
Gmin = 1.89714e-008
Gmin = 2.03704e-009
Gmin = 2.18725e-010
Gmin = 2.34854e-011
Gmin = 2.52173e-012
Gmin = 2.70769e-013
Gmin = 0
Gmin stepping succeeded in finding the operating point.


Date: Tue Apr 27 08:50:04 2021
Total elapsed time: 40.055 seconds.

tnom = 27
temp = 27
method = modified trap
totiter = 54009
traniter = 53626
tranpoints = 14436
accept = 10876
rejected = 3560
matrix size = 701
fillins = 3986
solver = Normal
Thread vector: 461.0/114.2[8] 60.7/37.2[8] 55.6/26.2[8] 5.8/3.7[8]  2592/500
Matrix Compiler1: 391.90 KB object code size  102.1/44.6/[23.4]
Matrix Compiler2: 161.92 KB object code size  18.5/13.4/[10.1]

