Circuit: * C:\Users\Avi\Desktop\IEEGIT\TBioCAS2021\FIG5\4OZ\bounded\OZ_4_bounded_curves.asc

Direct Newton iteration for .op point skipped.
Starting Gmin stepping
Gmin = 10
Gmin = 1.07374
Gmin = 0.115292
Gmin = 0.0123794
Gmin = 0.00132923
Gmin = 0.000142725
Gmin = 1.5325e-005
Gmin = 1.6455e-006
Gmin = 1.76685e-007
Gmin = 1.89714e-008
Gmin = 2.03704e-009
Gmin = 2.18725e-010
Gmin = 2.34854e-011
Gmin = 2.52173e-012
Gmin = 2.70769e-013
Gmin = 0
Gmin stepping succeeded in finding the operating point.


Date: Tue Apr 27 08:48:47 2021
Total elapsed time: 21.058 seconds.

tnom = 27
temp = 27
method = modified trap
totiter = 38414
traniter = 38031
tranpoints = 10723
accept = 8090
rejected = 2633
matrix size = 499
fillins = 2812
solver = Normal
Thread vector: 387.8/132.3[8] 48.6/30.5[8] 55.3/36.7[8] 3.8/4.1[1]  2592/500
Matrix Compiler1: 276.40 KB object code size  58.3/39.5/[30.1]
Matrix Compiler2: 114.40 KB object code size  13.1/9.4/[6.0]

