Circuit: * C:\Users\Avi\Desktop\IEEGIT\TBioCAS2021\FIG5\6OZ\pure\OZ_6_pure_curves.asc

WARNING: Less than two connections to node VREF.  This node is used by VOFF2.
Direct Newton iteration for .op point skipped.
Starting Gmin stepping
Gmin = 10
Gmin = 1.07374
Gmin = 0.115292
Gmin = 0.0123794
Gmin = 0.00132923
Gmin = 0.000142725
Gmin = 1.5325e-005
Gmin = 1.6455e-006
Gmin = 1.76685e-007
Gmin = 1.89714e-008
Gmin = 2.03704e-009
Gmin = 2.18725e-010
Gmin = 2.34854e-011
Gmin = 2.52173e-012
Gmin = 2.70769e-013
Gmin = 0
Gmin stepping succeeded in finding the operating point.


Date: Tue Apr 27 08:50:45 2021
Total elapsed time: 39.504 seconds.

tnom = 27
temp = 27
method = modified trap
totiter = 55999
traniter = 55613
tranpoints = 14839
accept = 11094
rejected = 3745
matrix size = 703
fillins = 3992
solver = Normal
Thread vector: 689.0/105.3[8] 61.3/34.3[8] 74.7/36.2[8] 6.2/3.8[7]  2592/500
Matrix Compiler1: 390.38 KB object code size  87.7/42.6/[21.1]
Matrix Compiler2: 162.04 KB object code size  18.9/12.7/[10.2]

