Circuit: * C:\Users\Avi\Desktop\IEEGIT\TBioCAS2021\FIG5\6OZ\uniform\OZ_6_uniform_curves.asc

Direct Newton iteration for .op point skipped.
Starting Gmin stepping
Gmin = 10
Gmin = 1.07374
Gmin = 0.115292
Gmin = 0.0123794
Gmin = 0.00132923
Gmin = 0.000142725
Gmin = 1.5325e-005
Gmin = 1.6455e-006
Gmin = 1.76685e-007
Gmin = 1.89714e-008
Gmin = 2.03704e-009
Gmin = 2.18725e-010
Gmin = 2.34854e-011
Gmin = 2.52173e-012
Gmin = 2.70769e-013
Gmin = 0
Gmin stepping succeeded in finding the operating point.


Date: Tue Apr 27 08:51:09 2021
Total elapsed time: 23.501 seconds.

tnom = 27
temp = 27
method = modified trap
totiter = 30943
traniter = 30560
tranpoints = 8728
accept = 6651
rejected = 2077
matrix size = 705
fillins = 3917
solver = Normal
Thread vector: 348.7/92.0[8] 78.5/43.2[8] 62.9/32.7[8] 5.2/3.4[5]  2592/500
Matrix Compiler1: 384.69 KB object code size  106.9/83.1/[20.5]
Matrix Compiler2: 160.93 KB object code size  19.6/12.3/[7.8]

