Circuit: * C:\Users\Avi\Desktop\IEEGIT\TBioCAS2021\FIG5\2OZ\bounded\OZ_2_bounded_curves.asc

Direct Newton iteration for .op point skipped.
Starting Gmin stepping
Gmin = 10
Gmin = 1.07374
Gmin = 0.115292
Gmin = 0.0123794
Gmin = 0.00132923
Gmin = 0.000142725
Gmin = 1.5325e-005
Gmin = 1.6455e-006
Gmin = 1.76685e-007
Gmin = 1.89714e-008
Gmin = 2.03704e-009
Gmin = 2.18725e-010
Gmin = 2.34854e-011
Gmin = 2.52173e-012
Gmin = 2.70769e-013
Gmin = 0
Gmin stepping succeeded in finding the operating point.


Date: Tue Apr 27 08:48:12 2021
Total elapsed time: 7.039 seconds.

tnom = 27
temp = 27
method = modified trap
totiter = 22629
traniter = 22246
tranpoints = 6635
accept = 5027
rejected = 1608
matrix size = 297
fillins = 1500
solver = Normal
Thread vector: 105.8/33.3[8] 23.2/13.1[8] 27.1/10.1[8] 2.2/1.7[4]  2592/500
Matrix Compiler1: 133.16 KB object code size  25.7/13.2/[5.0]
Matrix Compiler2: 64.18 KB object code size  8.4/6.8/[3.2]

