Circuit: * C:\Users\Avi\Desktop\IEEGIT\TBioCAS2021\FIG5\8OZ\bounded\OZ_8_bounded_curves.asc

Direct Newton iteration for .op point skipped.
Starting Gmin stepping
Gmin = 10
Gmin = 1.07374
Gmin = 0.115292
Gmin = 0.0123794
Gmin = 0.00132923
Gmin = 0.000142725
Gmin = 1.5325e-005
Gmin = 1.6455e-006
Gmin = 1.76685e-007
Gmin = 1.89714e-008
Gmin = 2.03704e-009
Gmin = 2.18725e-010
Gmin = 2.34854e-011
Gmin = 2.52173e-012
Gmin = 2.70769e-013
Gmin = 0
Gmin stepping succeeded in finding the operating point.


Date: Tue Apr 27 08:52:19 2021
Total elapsed time: 68.689 seconds.

tnom = 27
temp = 27
method = modified trap
totiter = 69200
traniter = 68817
tranpoints = 17878
accept = 13419
rejected = 4459
matrix size = 903
fillins = 5172
solver = Normal
Thread vector: 560.7/133.4[8] 85.2/50.4[8] 75.9/35.9[8] 7.6/4.2[8]  2592/500
Matrix Compiler1: 529.19 KB object code size  123.5/60.3/[31.8]
Matrix Compiler2: 209.55 KB object code size  25.2/15.7/[10.0]

