Circuit: * C:\Users\Avi\Desktop\IEEGIT\TBioCAS2021\FIG5\8OZ\uniform\OZ_8_uniform_curves.asc

Direct Newton iteration for .op point skipped.
Starting Gmin stepping
Gmin = 10
Gmin = 1.07374
Gmin = 0.115292
Gmin = 0.0123794
Gmin = 0.00132923
Gmin = 0.000142725
Gmin = 1.5325e-005
Gmin = 1.6455e-006
Gmin = 1.76685e-007
Gmin = 1.89714e-008
Gmin = 2.03704e-009
Gmin = 2.18725e-010
Gmin = 2.34854e-011
Gmin = 2.52173e-012
Gmin = 2.70769e-013
Gmin = 0
Gmin stepping succeeded in finding the operating point.


Date: Tue Apr 27 08:54:18 2021
Total elapsed time: 48.962 seconds.

tnom = 27
temp = 27
method = modified trap
totiter = 46793
traniter = 46410
tranpoints = 12668
accept = 9604
rejected = 3064
matrix size = 907
fillins = 5185
solver = Normal
Thread vector: 663.7/168.4[8] 86.6/49.7[8] 90.9/50.0[8] 7.9/5.0[8]  2592/500
Matrix Compiler1: 531.85 KB object code size  134.1/62.1/[40.3]
Matrix Compiler2: 210.09 KB object code size  25.7/18.1/[11.0]

