Circuit: * C:\Users\Avi\Desktop\IEEGIT\TBioCAS2021\FIG5\2OZ\pure\OZ_2_pure_curves.asc

WARNING: Less than two connections to node VREF.  This node is used by VOFF2.
Direct Newton iteration for .op point skipped.
Starting Gmin stepping
Gmin = 10
Gmin = 1.07374
Gmin = 0.115292
Gmin = 0.0123794
Gmin = 0.00132923
Gmin = 0.000142725
Gmin = 1.5325e-005
Gmin = 1.6455e-006
Gmin = 1.76685e-007
Gmin = 1.89714e-008
Gmin = 2.03704e-009
Gmin = 2.18725e-010
Gmin = 2.34854e-011
Gmin = 2.52173e-012
Gmin = 2.70769e-013
Gmin = 0
Gmin stepping succeeded in finding the operating point.


Date: Tue Apr 27 08:48:21 2021
Total elapsed time: 8.651 seconds.

tnom = 27
temp = 27
method = modified trap
totiter = 28504
traniter = 28121
tranpoints = 8306
accept = 6182
rejected = 2124
matrix size = 299
fillins = 1475
solver = Normal
Thread vector: 209.7/76.1[8] 24.0/13.2[8] 32.3/10.5[8] 2.1/2.1[2]  2592/500
Matrix Compiler1: 131.59 KB object code size  31.5/18.8/[5.3]
Matrix Compiler2: 63.81 KB object code size  7.1/7.5/[3.5]

